flow-decomposition/src/test/resources/com/powsybl/flowdecomposition/NETWORK_TWO_LOADS_SINGLE_GENERATOR_WITH_COUNTRIES.uct
##C 2007.05.01
This is a test network with only two branches.
Each branch is linking a central generator with multiple loads.
Used to validate:
- Loss aggregation
##N
##ZFR
FGEN1 11 GEN          0 3 400.00 0.00000 0.00000 -400.00 0.00000 1000.00 -1000.0 1000.00 -1000.0
##ZBE
BLOAD111 LOAD         0 0        100.000 0.00000 0.00000 0.00000
BLOAD211 LOAD         0 0        100.000 0.00000 0.00000 0.00000
BLOAD311 LOAD         0 0        100.000 0.00000 0.00000 0.00000
BLOAD411 LOAD         0 0        100.000 0.00000 0.00000 0.00000
##L
FGEN1 11 BLOAD111 1 0 1.0000 0.0500 0.000000    480 LINE
FGEN1 11 BLOAD211 1 0 1.0000 0.0500 0.000000    480 LINE
FGEN1 11 BLOAD311 1 0 1.0000 0.0500 0.000000    480 LINE
FGEN1 11 BLOAD411 1 0 1.0000 0.0500 0.000000    480 LINE
